ASSIGN dbc='A5_Static Structural.xdb',
unit=40 unformated delete
SOL 101
TIME 10000
CEND
  TITLE = C:\Users\91982\Desktop\Moksha\eBAJA 2024\Suspension Lower H Arm Analysis\A5_Static Structural.bdf
  ECHO = NONE
  DISPLACEMENT(PLOT) = ALL
  STRESS(PLOT) = ALL
  SPC = 1
BEGIN BULK
PARAM, WTMASS,1.000000
PARAM, POST, 0
$ CORD SYS ------------------------------
CORD2R  12      0       0.0000000.0000000.0000000.0000000.0000001.000000        
        1.0000000.0000000.000000
$ Materials ------------------------------
MAT1    1       2.000+11        0.3000007850.0001.200-0522.00000                
                                        
$ Properties ------------------------------
PSOLID  1       1               TWO             FULL                            
$ RBE2s from CPs ------------------------------
$ RBE2s (Rigid)  ------------------------------
$ RBE3s (Force distributed) ------------------------------
$ NODES ------------------------------
GRID    1       0       0.199715-0.01270-0.217070       
GRID    2       0       0.210023-1.14-12-0.204370       
GRID    3       0       0.204417-0.01130-0.211280       
GRID    4       0       0.208327-0.00698-0.206460       
GRID    5       0       0.1697334.591-08-0.012700       
GRID    6       0       0.2084111.836-09-0.196710       
GRID    7       0       0.2068003.672-09-0.189040       
GRID    8       0       0.2051885.509-09-0.181370       
GRID    9       0       0.2035777.345-09-0.173710       
GRID    10      0       0.2019659.182-09-0.166040       
GRID    11      0       0.2003531.102-08-0.158370       
GRID    12      0       0.1987421.286-08-0.150710       
GRID    13      0       0.1971301.469-08-0.143040       
GRID    14      0       0.1955191.653-08-0.135370       
GRID    15      0       0.1939071.837-08-0.127700       
GRID    16      0       0.1922952.020-08-0.120040       
GRID    17      0       0.1906842.204-08-0.112370       
GRID    18      0       0.1890722.388-08-0.104700       
GRID    19      0       0.1874612.571-08-0.097040       
GRID    20      0       0.1858492.755-08-0.089370       
$ ... 15250 like lines cut
$ ELEMENTS ------------------------------
$ ANSYS: Combin14 (longitudinal)
$ ANSYS: Combin14 (coincident)
$ ANSYS: Combin250
$ ANSYS: Link180
$ ANSYS: Beam188
$ ANSYS: Shell 181
$ ANSYS: Shell 281
$ ANSYS: Solid 185
$ ANSYS: Solid 186
$ ANSYS: Solid 187
CTETRA  1       1       737     1915    855     1981    8142    8885            
        8137    8144    13813   8887            
CTETRA  2       1       737     855     888     1981    8137    8883            
        8140    8144    8887    9007            
CTETRA  3       1       855     1899    1981    1915    8884    13733           
        8887    8885    13729   13813           
CTETRA  4       1       737     1973    1915    1981    8143    13811           
        8142    8144    13946   13813           
CTETRA  5       1       737     855     1915    769     8137    8885            
        8142    8135    8408    8413            
CTETRA  6       1       802     1981    888     855     8642    9007            
        8638    8637    8887    8883            
CTETRA  7       1       855     1899    1915    1919    8884    13729           
        8885    8886    13730   13810           
CTETRA  8       1       802     855     1899    1981    8637    8884            
        8640    8642    8887    13733           
CTETRA  9       1       737     769     1915    856     8135    8413            
        8142    8138    8409    8889            
CTETRA  10      1       769     1919    855     1915    8414    8886            
        8408    8413    13810   8885            
CTETRA  11      1       159     1899    855     1919    4080    8884            
        4077    4081    13730   8886            
CTETRA  12      1       802     1981    1899    1898    8642    13733           
        8640    8639    13727   13723           
CTETRA  13      1       159     1899    802     855     4080    8640            
        4076    4077    8884    8637            
CTETRA  14      1       769     1915    1975    1919    8413    13812           
        8415    8414    13810   13829           
CTETRA  15      1       154     1919    855     769     4028    8886            
        4026    4025    8414    8408            
CTETRA  16      1       737     811     1973    885     8136    8688            
        8143    8139    8687    8999            
CTETRA  17      1       888     1898    1901    1981    9005    13724           
        9006    9007    13727   13743           
CTETRA  18      1       154     159     855     1919    4024    4077            
        4026    4028    4081    8886            
CTETRA  19      1       159     1922    1899    1919    4082    13731           
        4080    4081    13828   13730           
CTETRA  20      1       802     1980    1898    1899    8641    13726           
        8639    8640    13732   13723           
$ ... 15130 like lines cut
$ ANSYS: Mass 21 
$ Boundary Conditions ------------------------------
$ DOF BCs (SPCs) 
SPC     1       268     1       0.000000
SPC     1       268     2       0.000000
SPC     1       268     3       0.000000
SPC     1       269     1       0.000000
SPC     1       269     2       0.000000
SPC     1       269     3       0.000000
SPC     1       270     1       0.000000
SPC     1       270     2       0.000000
SPC     1       270     3       0.000000
SPC     1       271     1       0.000000
SPC     1       271     2       0.000000
SPC     1       271     3       0.000000
SPC     1       272     1       0.000000
SPC     1       272     2       0.000000
SPC     1       272     3       0.000000
SPC     1       273     1       0.000000
SPC     1       273     2       0.000000
SPC     1       273     3       0.000000
SPC     1       274     1       0.000000
SPC     1       274     2       0.000000
$ ... 1345 like lines cut
$ SFE Loads 
PLOAD4  3       3426    576931.4                        221     551     
        12      0.000000-576931.0.000000SURF    NORM    
PLOAD4  3       3428    576931.4                        2517    165     
        12      0.000000-576931.0.000000SURF    NORM    
PLOAD4  3       3439    576931.4                        2517    550     
        12      0.000000-576931.0.000000SURF    NORM    
PLOAD4  3       3488    576931.4                        223     546     
        12      0.000000-576931.0.000000SURF    NORM    
PLOAD4  3       3489    576931.4                        220     1574    
        12      0.000000-576931.0.000000SURF    NORM    
PLOAD4  3       3490    576931.4                        220     547     
        12      0.000000-576931.0.000000SURF    NORM    
PLOAD4  3       3494    576931.4                        2515    1563    
        12      0.000000-576931.0.000000SURF    NORM    
PLOAD4  3       3495    576931.4                        220     193     
        12      0.000000-576931.0.000000SURF    NORM    
PLOAD4  3       3502    576931.4                        2518    549     
        12      0.000000-576931.0.000000SURF    NORM    
PLOAD4  3       3503    576931.4                        2517    550     
        12      0.000000-576931.0.000000SURF    NORM    
PLOAD4  3       3504    576931.4                        2520    548     
        12      0.000000-576931.0.000000SURF    NORM    
PLOAD4  3       3505    576931.4                        2520    168     
        12      0.000000-576931.0.000000SURF    NORM    
PLOAD4  3       3509    576931.4                        222     2540    
        12      0.000000-576931.0.000000SURF    NORM    
PLOAD4  3       3511    576931.4                        2518    1557    
        12      0.000000-576931.0.000000SURF    NORM    
PLOAD4  3       3513    576931.4                        223     548     
        12      0.000000-576931.0.000000SURF    NORM    
PLOAD4  3       3553    576931.4                        224     1561    
        12      0.000000-576931.0.000000SURF    NORM    
PLOAD4  3       3555    576931.4                        221     552     
        12      0.000000-576931.0.000000SURF    NORM    
PLOAD4  3       3557    576931.4                        2515    1563    
        12      0.000000-576931.0.000000SURF    NORM    
PLOAD4  3       3561    576931.4                        220     1555    
        12      0.000000-576931.0.000000SURF    NORM    
PLOAD4  3       3565    576931.4                        221     554     
        12      0.000000-576931.0.000000SURF    NORM    
$ ... 496 like lines cut
ENDDATA
